#!sh ====================
# | Model parameters |
# ====================
#
# Continuous equation parameters
 &PARM01
 viscAh=20,
 viscA4=1.0E10,
 diffKhT=20.,
 diffK4T=1.0E10,
 diffKhS=20.,
 diffK4S=1.0E10,
 viscAz=1.E-5,
 diffKzT=1.E-5,
 diffKzS=1.E-5,
 no_slip_sides=.FALSE.,
 no_slip_bottom=.FALSE.,
 eosType='JMD95Z',
 rigidLid=.FALSE.,
 implicitFreeSurface=.TRUE.,
 exactConserv=.TRUE.,
 hFacMin=0.4,
 nonHydrostatic=.FALSE.,
 readBinaryPrec=32,
# writeBinaryPrec=32,
 tempAdvScheme=33,
 saltAdvScheme=33,
 staggerTimeStep=.TRUE.,
 implicitDiffusion=.TRUE.,
 implicitViscosity=.TRUE.,
 useRealFreshWaterFlux=.TRUE.,
 balanceEmPmR=.TRUE.,
 useSingleCpuIO=.TRUE.,
 &end

# Elliptic solver parameters
 &PARM02
 cg2dMaxIters=400,
 cg2dTargetResidual=1.E-13,
 cg3dMaxIters=200,
 cg3dTargetResidual=1.E-8,
 &end

# Time stepping parameters 77760=180d, 79920=185d, 51840=120d, 54000=125d
 &PARM03
 nIter0=0,
 nTimeSteps=100,
 deltaT=5.0,
 abEps=0.01,
# permanent pickup every 73-d
 pChkptFreq=0.,
# rolling pickup every 5-d (used for restarts)
 chkptFreq=0.,
 monitorFreq=50.,
 dumpFreq=50.,
 periodicExternalForcing=.TRUE.,
 useYearlyField=.TRUE.,
# 5 days
 externForcingPeriod=432000,
 externForcingCycle=31536000,
 &end

# Gridding parameters
 &PARM04
 usingSphericalPolarGrid=.TRUE.,
 ygOrigin=25.5,
 xgOrigin=278.4,
 delXFile='dx50.bin',
 delYFile='dy50.bin',
 delRFile='dz50.bin',
 &end

# Input datasets
 &PARM05
 bathyFile='topo50.bin',
 uVelInitFile='u_ini.bin',
 vVelInitFile='v_ini.bin',
 hydrogThetaFile='t_ini.bin',
 hydrogSaltFile='s_ini.bin',
 pSurfInitFile='eta_ini.bin',
 &end
